  
       XFOIL         Version 6.99
  
 Calculated polar for: naca2412                                        
  
 1 1 Reynolds number fixed          Mach number fixed         
  
 xtrf =   1.000 (top)        1.000 (bottom)  
 Mach =   0.000     Re =     0.000 e 6     Ncrit =   9.000  9.000
  
   alpha    CL        CD       CDp       CM     Top_Xtr  Bot_Xtr  Top_Itr  Bot_Itr
  ------ -------- --------- --------- -------- -------- -------- -------- --------
   0.000   0.2604   0.00000  -0.00101  -0.0557  -0.5738   0.0000   0.0000   0.0000   0.0000
   3.000   0.6224   0.00000  -0.00103  -0.0601  -1.0805   0.0000   0.0000   0.0000   0.0000
   6.000   0.9826   0.00000  -0.00107  -0.0646  -2.5104   0.0000   0.0000   0.0000   0.0000
   9.000   1.3402   0.00000  -0.00113  -0.0692  -4.9151   0.0000   0.0000   0.0000   0.0000
  12.000   1.6942   0.00000  -0.00121  -0.0737  -8.2352   0.0000   0.0000   0.0000   0.0000
